#======================================================================

# CRYSTAL DATA

#----------------------------------------------------------------------

_pd_phase_name                         'Al2SiO4(OH)2'
_cell_length_a                         4.7203(8)
_cell_length_b                         8.9207(15)
_cell_length_c                         8.4189(15)
_cell_angle_alpha                      90
_cell_angle_beta                       90
_cell_angle_gamma                      90
_symmetry_space_group_name_H-M         'P b n m'
_symmetry_Int_Tables_number            62

loop_
_symmetry_equiv_pos_as_xyz
   'x, y, z'
   '-x, -y, -z'
   'x+1/2, -y+1/2, -z'
   '-x+1/2, y+1/2, z'
   '-x, -y, z+1/2'
   'x, y, -z+1/2'
   '-x+1/2, y+1/2, -z+1/2'
   'x+1/2, -y+1/2, z+1/2'

loop_
   _atom_site_label
   _atom_site_occupancy
   _atom_site_fract_x
   _atom_site_fract_y
   _atom_site_fract_z
   _atom_site_thermal_displace_type
   _atom_site_B_iso_or_equiv
   _atom_site_type_symbol
   Al       1    0.90499(8)   0.13210(5)   0.07984(6)  Biso  0.33  Al
   Si       1    0.40189(10)  0.94045(7)   0.25        Biso  0.29  Si
   O1       1    0.7104(4)    0.0262(2)    0.25        Biso  0.38  O
   O2       1    0.4439(3)    0.7561(2)    0.25        Biso  0.36  O
   O3       1    0.2141(2)    0.9929(1)    0.0943(1)   Biso  0.38  O
   O4       1    0.5906(3)    0.2507(1)    0.0659(1)   Biso  0.52  O
   H1       1    0.443(11)    0.199(6)     0.088(5)    Biso  2.7   H
   H2       1    0.607(14)    0.281(8)     0.151(7)    Biso  7.1   H
