#======================================================================

# CRYSTAL DATA

#----------------------------------------------------------------------

_pd_phase_name                         'BeAl2O4'
_cell_length_a                         9.404
_cell_length_b                         5.476
_cell_length_c                         4.427
_cell_angle_alpha                      90
_cell_angle_beta                       90
_cell_angle_gamma                      90
_symmetry_space_group_name_H-M         'P n m a'
_symmetry_Int_Tables_number            62

loop_
_symmetry_equiv_pos_as_xyz
   'x, y, z'
   '-x, -y, -z'
   '-x+1/2, -y, z+1/2'
   'x+1/2, y, -z+1/2'
   '-x, y+1/2, -z'
   'x, -y+1/2, z'
   'x+1/2, -y+1/2, -z+1/2'
   '-x+1/2, y+1/2, z+1/2'

loop_
   _atom_site_label
   _atom_site_occupancy
   _atom_site_fract_x
   _atom_site_fract_y
   _atom_site_fract_z
   _atom_site_thermal_displace_type
   _atom_site_B_iso_or_equiv
   _atom_site_type_symbol
   Be       1    0.0929(7)    0.25         0.433(1)     Biso  0.15  Be
   Al1      1    0            0            0            Biso  0.07  Al
   Al2      1    0.2732(2)    0.25         -0.0060(3)   Biso  0.10  Al
   O1       1    0.0905(3)    0.25         0.7902(6)    Biso  0.06  O
   O2       1    0.4334(3)    0.25         0.2410(7)    Biso  0.23  O
   O3       1    0.1632(2)    0.0172(6)    0.2585(4)    Biso  0.14  O
