#======================================================================

# CRYSTAL DATA

#----------------------------------------------------------------------

_pd_phase_name                         'Ba2In2O5'
_cell_length_a                         16.7191(10)
_cell_length_b                         6.0833(10)
_cell_length_c                         5.9563(10)
_cell_angle_alpha                      90
_cell_angle_beta                       90
_cell_angle_gamma                      90
_symmetry_space_group_name_H-M         'I m a 2'
_symmetry_Int_Tables_number            46

loop_
_symmetry_equiv_pos_as_xyz
   'x, y, z'
   '-x, -y, z'
   'x+1/2, -y, z'
   '-x+1/2, y, z'
   'x+1/2, y+1/2, z+1/2'
   '-x+1/2, -y+1/2, z+1/2'
   'x, -y+1/2, z+1/2'
   '-x, y+1/2, z+1/2'

loop_
   _atom_site_label
   _atom_site_occupancy
   _atom_site_fract_x
   _atom_site_fract_y
   _atom_site_fract_z
   _atom_site_thermal_displace_type
   _atom_site_B_iso_or_equiv
   _atom_site_type_symbol
   Ba       1    0.1108(3)    0.0171(5)    0.5097(5)   Biso  0.87  Ba
   In1      1    0            0            0.0005(10)  Biso  0.71  In
   In2      1    0.25         0.9515(11)   0.0119(9)   Biso  1.3   In
   O1       1    0.9955(9)    0.2722(44)   0.2967(44)  Biso  0.08  O
   O2       1    0.1418(18)   0.0536(44)   0.0513(43)  Biso  0.0   O
   O3       1    0.25         0.8919(71)   0.6189(63)  Biso  2.4   O
