#======================================================================

# CRYSTAL DATA

#----------------------------------------------------------------------

_pd_phase_name                         'KMg2Fe(AlSi3O10)(OH)2'
_cell_length_a                         5.345(1)
_cell_length_b                         9.258(2)
_cell_length_c                         10.222(2)
_cell_angle_alpha                      90
_cell_angle_beta                       100.23(2)
_cell_angle_gamma                      90
_symmetry_space_group_name_H-M         'C 2/m  '
_symmetry_Int_Tables_number            12

loop_
_symmetry_equiv_pos_as_xyz
   'x, y, z'
   '-x, -y, -z'
   '-x, y, -z'
   'x, -y, z'
   'x+1/2, y+1/2, z'
   '-x+1/2, -y+1/2, -z'
   '-x+1/2, y+1/2, -z'
   'x+1/2, -y+1/2, z'

loop_
   _atom_site_label
   _atom_site_occupancy
   _atom_site_fract_x
   _atom_site_fract_y
   _atom_site_fract_z
   _atom_site_thermal_displace_type
   _atom_site_B_iso_or_equiv
   _atom_site_type_symbol
   K       1    0            0.5          0           Biso 2.95   K
   Mg      1    0            0.3347(1)    0.5         Biso 1.00   Mg
   Fe      1    0            0            0.5         Biso 0.93   Fe
   SA      1    0.0748(1)    0.1669(1)    0.2257(1)   Biso 0.76   Si
   O1      1    0.0267(6)    0            0.1687(3)   Biso 1.71   O
   O2      1    0.3195(4)    0.2361(3)    0.1681(2)   Biso 1.66   O
   O3      1    0.1316(3)    0.1677(2)    0.3909(2)   Biso 1.03   O
   O4      1    0.1291(5)    0.5          0.3947(3)   Biso 1.16   O
   H       1    0.09         0.5          0.315       Biso 1      H
