#======================================================================

# CRYSTAL DATA

#----------------------------------------------------------------------

_pd_phase_name                         'CaCO3 Aragonite'
_cell_length_a                         4.9616(2)
_cell_length_b                         7.9705(6)
_cell_length_c                         5.7394(4)
_cell_angle_alpha                      90
_cell_angle_beta                       90
_cell_angle_gamma                      90
_symmetry_space_group_name_H-M         'P m c n'
_symmetry_Int_Tables_number            62

loop_
_symmetry_equiv_pos_as_xyz
   'x, y, z'
   '-x, -y, -z'
   '-x, y+1/2, -z+1/2'
   'x, -y+1/2, z+1/2'
   'x+1/2, -y, -z'
   '-x+1/2, y, z'
   '-x+1/2, -y+1/2, z+1/2'
   'x+1/2, y+1/2, -z+1/2'

loop_
   _atom_site_label
   _atom_site_occupancy
   _atom_site_fract_x
   _atom_site_fract_y
   _atom_site_fract_z
   _atom_site_thermal_displace_type
   _atom_site_B_iso_or_equiv
   _atom_site_type_symbol
   Ca       1    0.25         0.4151(1)    0.2403(1)   Biso  1  Ca
   C        1    0.25         0.7627(5)    0.0850(7)   Biso  1  C
   O1       1    0.25         0.9231(4)    0.0952(6)   Biso  1  O
   O2       1    0.4729(4)    0.6801(3)    0.0870(4)   Biso  1  O
