#======================================================================

# CRYSTAL DATA

#----------------------------------------------------------------------


_pd_phase_name                         'CaWO4'
_cell_length_a                         5.2429(3)
_cell_length_b                         5.2429(3)
_cell_length_c                         11.3737(6)
_cell_angle_alpha                      90
_cell_angle_beta                       90
_cell_angle_gamma                      90
_symmetry_space_group_name_H-M         'I 41/a  '
_symmetry_Int_Tables_number            88

loop_
_symmetry_equiv_pos_as_xyz
   'x, y, z'
   '-x+1/2, -y+1/2, z+1/2'
   '-y, x+1/2, z+1/4'
   'y+1/2, -x, z+3/4'
   '-x, -y+1/2, -z+1/4'
   'x+1/2, y, -z+3/4'
   'y, -x, -z'
   '-y+1/2, x+1/2, -z+1/2'
   'x+1/2, y+1/2, z+1/2'
   '-x, -y, z'
   '-y+1/2, x, z+3/4'
   'y, -x+1/2, z+1/4'
   '-x+1/2, -y, -z+3/4'
   'x, y+1/2, -z+1/4'
   'y+1/2, -x+1/2, -z+1/2'
   '-y, x, -z'

loop_
   _atom_site_label
   _atom_site_occupancy
   _atom_site_fract_x
   _atom_site_fract_y
   _atom_site_fract_z
   _atom_site_thermal_displace_type
   _atom_site_B_iso_or_equiv
   _atom_site_type_symbol
   Ca       1    0            0.25         0.625       Biso  0.58  Ca
   W        1    0            0.25         0.125       Biso  0.44  W
   O        1    0.1507(9)    0.0086(10)   0.2106(4)   Biso  0.68  O
