#======================================================================

# CRYSTAL DATA

#----------------------------------------------------------------------

_pd_phase_name                         'Na3AlF6'
_cell_length_a                         5.4139(7)
_cell_length_b                         5.6012(5)
_cell_length_c                         7.7769(8)
_cell_angle_alpha                      90
_cell_angle_beta                       90.183(3)
_cell_angle_gamma                      90
_symmetry_space_group_name_H-M         'P 21/n  '
_symmetry_Int_Tables_number            14

loop_
_symmetry_equiv_pos_as_xyz
   'x, y, z'
   '-x, -y, -z'
   '-x+1/2, y+1/2, -z+1/2'
   'x+1/2, -y+1/2, z+1/2'

loop_
   _atom_site_label
   _atom_site_occupancy
   _atom_site_fract_x
   _atom_site_fract_y
   _atom_site_fract_z
   _atom_site_thermal_displace_type
   _atom_site_B_iso_or_equiv
   _atom_site_type_symbol
   Na1      1    0            0            0.5         Biso  2.7  Na
   Na2      1   -0.0121(3)    0.4492(2)    0.2526(2)   Biso  4.2  Na
   Al       1    0            0            0           Biso  1.7  Al
   F1       1    0.1016(4)    0.0442(4)    0.2188(2)   Biso  3.1  F
   F2       1    0.2278(4)    0.3267(4)    0.5450(3)   Biso  3.8  F
   F3       1    0.1622(4)    0.2687(4)    0.9383(3)   Biso  4.0  F
