#======================================================================

# CRYSTAL DATA

#----------------------------------------------------------------------

_pd_phase_name                         'NaAlSi2O6'
_cell_length_a                         9.423(1)
_cell_length_b                         8.564(1)
_cell_length_c                         5.223(1)
_cell_angle_alpha                      90
_cell_angle_beta                       107.56(1)
_cell_angle_gamma                      90
_symmetry_space_group_name_H-M         'C 2/c  '
_symmetry_Int_Tables_number            15

loop_
_symmetry_equiv_pos_as_xyz
   'x, y, z'
   '-x, -y, -z'
   '-x, y, -z+1/2'
   'x, -y, z+1/2'
   'x+1/2, y+1/2, z'
   '-x+1/2, -y+1/2, -z'
   '-x+1/2, y+1/2, -z+1/2'
   'x+1/2, -y+1/2, z+1/2'

loop_
   _atom_site_label
   _atom_site_occupancy
   _atom_site_fract_x
   _atom_site_fract_y
   _atom_site_fract_z
   _atom_site_thermal_displace_type
   _atom_site_B_iso_or_equiv
   _atom_site_type_symbol
   Na       1    0            0.3005(2)    0.25        Biso  1.00  Na
   Al       1    0            0.9058(1)    0.25        Biso  0.37  Al
   Si       1    0.2906(1)    0.0933(1)    0.2277(1)   Biso  0.34  Si
   O1       1    0.1092(2)    0.0760(2)    0.1285(3)   Biso  0.45  O
   O2       1    0.3611(2)    0.2633(2)    0.2932(3)   Biso  0.61  O
   O3       1    0.3537(2)    0.0072(2)    0.0060(3)   Biso  0.55  O
