#======================================================================

# CRYSTAL DATA

#----------------------------------------------------------------------

_pd_phase_name                         'K(Li1.56Al1.3)(Al0.508Si3.492O10)F2'
_cell_length_a                         5.209(2)
_cell_length_b                         9.011(5)
_cell_length_c                         10.149(5)
_cell_angle_alpha                      90
_cell_angle_beta                       100.77(4)
_cell_angle_gamma                      90
_symmetry_space_group_name_H-M         'C 2/m  '
_symmetry_Int_Tables_number            12

loop_
_symmetry_equiv_pos_as_xyz
   'x, y, z'
   '-x, -y, -z'
   '-x, y, -z'
   'x, -y, z'
   'x+1/2, y+1/2, z'
   '-x+1/2, -y+1/2, -z'
   '-x+1/2, y+1/2, -z'
   'x+1/2, -y+1/2, z'

loop_
   _atom_site_label
   _atom_site_occupancy
   _atom_site_fract_x
   _atom_site_fract_y
   _atom_site_fract_z
   _atom_site_thermal_displace_type
   _atom_site_B_iso_or_equiv
   _atom_site_type_symbol
   K       1    0            0.5          0           Biso 1.99   K
   Li      1    0            0            0.5         Biso 1.8    Li
   AL      1    0            0.3289(1)    0.5         Biso 0.73   Al
   SA      1    0.08100(8)   0.16860(5)   0.23203(4)  Biso 0.73   Si
   O1      1    0.0218(4)    0            0.1750(2)   Biso 1.42   O
   O2      1    0.3252(2)    0.2319(2)    0.1680(1)   Biso 1.46   O
   O3      1    0.1418(3)    0.1768(1)    0.3945(1)   Biso 1.26   O
   F       1    0.1076(3)    0.5          0.4017(2)   Biso 2.11   F
