#======================================================================

# CRYSTAL DATA

#----------------------------------------------------------------------

_pd_phase_name                         '(Mg0.9Fe0.1)2SiO4'
_cell_length_a                         4.762
_cell_length_b                         10.225
_cell_length_c                         5.994
_cell_angle_alpha                      90
_cell_angle_beta                       90
_cell_angle_gamma                      90
_symmetry_space_group_name_H-M         'P b n m'
_symmetry_Int_Tables_number            62

loop_
_symmetry_equiv_pos_as_xyz
   'x, y, z'
   '-x, -y, -z'
   'x+1/2, -y+1/2, -z'
   '-x+1/2, y+1/2, z'
   '-x, -y, z+1/2'
   'x, y, -z+1/2'
   '-x+1/2, y+1/2, -z+1/2'
   'x+1/2, -y+1/2, z+1/2'

loop_
   _atom_site_label
   _atom_site_occupancy
   _atom_site_fract_x
   _atom_site_fract_y
   _atom_site_fract_z
   _atom_site_thermal_displace_type
   _atom_site_B_iso_or_equiv
   _atom_site_type_symbol
   MF1      1    0            0            0           Biso  0.33  Mg
   MF2      1    0.98975(29)  0.27743(16)  0.25        Biso  0.36  Mg
   Si       1    0.42693(27)  0.09434(13)  0.25        Biso  0.20  Si
   O1       1    0.76580(72)  0.09186(36)  0.25        Biso  0.35  O
   O2       1    0.22012(72)  0.44779(36)  0.25        Biso  0.42  O
   O3       1    0.27810(50)  0.16346(25)  0.03431(46) Biso  0.41  O
