#======================================================================

# CRYSTAL DATA

#----------------------------------------------------------------------

_pd_phase_name                         'TiO2 Rutile'
_cell_length_a                         4.593(2)
_cell_length_b                         4.593(2)
_cell_length_c                         2.959(2)
_cell_angle_alpha                      90
_cell_angle_beta                       90
_cell_angle_gamma                      90
_symmetry_space_group_name_H-M         'P 42/m n m'
_symmetry_Int_Tables_number            136

loop_
_symmetry_equiv_pos_as_xyz
   'x, y, z'
   '-x, -y, -z'
   '-x, -y, z'
   'x, y, -z'
   '-y+1/2, x+1/2, z+1/2'
   'y+1/2, -x+1/2, -z+1/2'
   'y+1/2, -x+1/2, z+1/2'
   '-y+1/2, x+1/2, -z+1/2'
   '-x+1/2, y+1/2, -z+1/2'
   'x+1/2, -y+1/2, z+1/2'
   'x+1/2, -y+1/2, -z+1/2'
   '-x+1/2, y+1/2, z+1/2'
   'y, x, -z'
   '-y, -x, z'
   '-y, -x, -z'
   'y, x, z'

loop_
   _atom_site_label
   _atom_site_occupancy
   _atom_site_fract_x
   _atom_site_fract_y
   _atom_site_fract_z
   _atom_site_thermal_displace_type
   _atom_site_B_iso_or_equiv
   _atom_site_type_symbol
   Ti      1    0            0            0           Biso  0.42  Ti
   O       1    0.3051(7)    0.3051(7)    0           Biso  0.60  O
