#======================================================================

# CRYSTAL DATA

#----------------------------------------------------------------------

_pd_phase_name                         'TiO2 Brookite'
_cell_length_a                         9.174(2)
_cell_length_b                         5.449(2)
_cell_length_c                         5.138(2)
_cell_angle_alpha                      90
_cell_angle_beta                       90
_cell_angle_gamma                      90
_symmetry_space_group_name_H-M         'P b c a'
_symmetry_Int_Tables_number            61

loop_
_symmetry_equiv_pos_as_xyz
   'x, y, z'
   '-x, -y, -z'
   '-x+1/2, -y, z+1/2'
   'x+1/2, y, -z+1/2'
   '-x, y+1/2, -z+1/2'
   'x, -y+1/2, z+1/2'
   'x+1/2, -y+1/2, -z'
   '-x+1/2, y+1/2, z'

loop_
   _atom_site_label
   _atom_site_occupancy
   _atom_site_fract_x
   _atom_site_fract_y
   _atom_site_fract_z
   _atom_site_thermal_displace_type
   _atom_site_B_iso_or_equiv
   _atom_site_type_symbol
   Ti       1    0.1289(1)    0.0972(1)    0.8628(1)   Biso  0.37  Ti
   O1       1    0.0095(4)    0.1491(5)    0.1835(5)   Biso  0.46  O
   O2       1    0.2314(4)    0.1110(4)    0.5366(6)   Biso  0.53  O
