#======================================================================

# CRYSTAL DATA

#----------------------------------------------------------------------

_pd_phase_name                         'Na0.55(Fe1.902Al0.828)Al6(BO3)3Si5.856Al0.138O18.333(OH)3'
_cell_length_a                         15.963(3)
_cell_length_b                         15.963(3)
_cell_length_c                         7.148(2)
_cell_angle_alpha                      90
_cell_angle_beta                       90
_cell_angle_gamma                      120
_symmetry_space_group_name_H-M         'R 3 m '
_symmetry_Int_Tables_number            160

loop_
_symmetry_equiv_pos_as_xyz
   'x, y, z'
   '-y, x-y, z'
   '-x+y, -x, z'
   '-y, -x, z'
   '-x+y, y, z'
   'x, x-y, z'
   'x+2/3, y+1/3, z+1/3'
   '-y+2/3, x-y+1/3, z+1/3'
   '-x+y+2/3, -x+1/3, z+1/3'
   '-y+2/3, -x+1/3, z+1/3'
   '-x+y+2/3, y+1/3, z+1/3'
   'x+2/3, x-y+1/3, z+1/3'
   'x+1/3, y+2/3, z+2/3'
   '-y+1/3, x-y+2/3, z+2/3'
   '-x+y+1/3, -x+2/3, z+2/3'
   '-y+1/3, -x+2/3, z+2/3'
   '-x+y+1/3, y+2/3, z+2/3'
   'x+1/3, x-y+2/3, z+2/3'

loop_
   _atom_site_label
   _atom_site_occupancy
   _atom_site_fract_x
   _atom_site_fract_y
   _atom_site_fract_z
   _atom_site_thermal_displace_type
   _atom_site_B_iso_or_equiv
   _atom_site_type_symbol
   Na       1     0            0            0.2215(7)   Biso  2.0    Na
   FA       1     0.12292(4)   0.06146(2)   0.6297(1)   Biso  0.61   Fe
   Al       1     0.29800(4)   0.26134(4)   0.6094(1)   Biso  0.40   Al
   B        1     0.1101(1)    0.2202(2)    0.4535(4)   Biso  0.64   B
   SA       1     0.19180(3)   0.18981(4)   0           Biso  0.460  Si
   O1       1     0            0            0.7771(7)   Biso  2.07   O
   O2       1     0.06166(8)   0.12332(16)  0.4871(3)   Biso  1.18   O
   O3       1     0.2666(2)    0.1333(1)    0.5083(3)   Biso  1.00   O
   O4       1     0.09380(8)   0.18760(16)  0.0694(3)   Biso  0.84   O
   O5       1     0.1877(2)    0.09385(1)   0.0922(3)   Biso  0.85   O
   O6       1     0.1971(1)    0.1867(1)    0.7754(2)   Biso  0.70   O
   O7       1     0.2854(1)    0.28601(9)   0.0783(2)   Biso  0.66   O
   O8       1     0.2099(1)    0.2706(1)    0.4397(2)   Biso  0.76   O
   H        1     0.268(4)     0.134(2)     0.398(8)    Biso  3.7    H
