#======================================================================

# CRYSTAL DATA

#----------------------------------------------------------------------

_pd_phase_name                         'ZnS Wurtzite'
_cell_length_a                         3.8227(1)
_cell_length_b                         3.8227(1)
_cell_length_c                         6.2607(1)
_cell_angle_alpha                      90
_cell_angle_beta                       90
_cell_angle_gamma                      120
_symmetry_space_group_name_H-M         'P 63 m c'
_symmetry_Int_Tables_number            186

loop_
_symmetry_equiv_pos_as_xyz
   'x, y, z'
   '-y, x-y, z'
   '-x+y, -x, z'
   '-x, -y, z+1/2'
   'y, -x+y, z+1/2'
   'x-y, x, z+1/2'
   '-y, -x, z'
   '-x+y, y, z'
   'x, x-y, z'
   'y, x, z+1/2'
   'x-y, -y, z+1/2'
   '-x, -x+y, z+1/2'

loop_
   _atom_site_label
   _atom_site_occupancy
   _atom_site_fract_x
   _atom_site_fract_y
   _atom_site_fract_z
   _atom_site_thermal_displace_type
   _atom_site_B_iso_or_equiv
   _atom_site_type_symbol
   Zn      1    0.33333      0.66667      0           Biso  0.90  Zn
   S       1    0.33333      0.66667      0.3748(2)   Biso  0.72  S
