#======================================================================

# CRYSTAL DATA

#----------------------------------------------------------------------

_pd_phase_name                         'SiO2'
_cell_length_a                         4.9709(1)
_cell_length_b                         4.9709(1)
_cell_length_c                         6.9278(2)
_cell_angle_alpha                      90
_cell_angle_beta                       90
_cell_angle_gamma                      90
_symmetry_space_group_name_H-M         'P 41 21 2'
_symmetry_Int_Tables_number            92

loop_
_symmetry_equiv_pos_as_xyz
   'x, y, z'
   '-x, -y, z+1/2'
   '-y+1/2, x+1/2, z+1/4'
   'y+1/2, -x+1/2, z+3/4'
   '-x+1/2, y+1/2, -z+1/4'
   'x+1/2, -y+1/2, -z+3/4'
   'y, x, -z'
   '-y, -x, -z+1/2'

loop_
   _atom_site_label
   _atom_site_occupancy
   _atom_site_fract_x
   _atom_site_fract_y
   _atom_site_fract_z
   _atom_site_thermal_displace_type
   _atom_site_B_iso_or_equiv
   _atom_site_type_symbol
   Si       1    0.3005(3)    0.3005(3)    0           Biso  1.0  Si
   O        1    0.2392(3)    0.1037(2)    0.1786(2)   Biso  1.9  O
