#======================================================================

# CRYSTAL DATA

#----------------------------------------------------------------------

_pd_phase_name                         'SiO2'
_cell_length_a                         4.921(1)
_cell_length_b                         4.921(1)
_cell_length_c                         5.4163(8)
_cell_angle_alpha                      90
_cell_angle_beta                       90
_cell_angle_gamma                      120
_symmetry_space_group_name_H-M         'P 31 2 1'
_symmetry_Int_Tables_number            152

loop_
_symmetry_equiv_pos_as_xyz
   'x, y, z'
   '-y, x-y, z+1/3'
   '-x+y, -x, z+2/3'
   'y, x, -z'
   'x-y, -y, -z+2/3'
   '-x, -x+y, -z+1/3'

loop_
   _atom_site_label
   _atom_site_occupancy
   _atom_site_fract_x
   _atom_site_fract_y
   _atom_site_fract_z
   _atom_site_thermal_displace_type
   _atom_site_B_iso_or_equiv
   _atom_site_type_symbol
   Si      1    0.4698(2)    0            0.33333     Biso  0.363   Si
   O       1    0.4151(5)    0.2675(4)    0.2139(1)   Biso  0.80    O
