#======================================================================

# CRYSTAL DATA

#----------------------------------------------------------------------

_pd_phase_name                         'KAlSi3O8'
_cell_length_a                         8.544(2)
_cell_length_b                         12.998(4)
_cell_length_c                         7.181(2)
_cell_angle_alpha                      90
_cell_angle_beta                       116.16(2)
_cell_angle_gamma                      90
_symmetry_space_group_name_H-M         'C 2/m  '
_symmetry_Int_Tables_number            12

loop_
_symmetry_equiv_pos_as_xyz
   'x, y, z'
   '-x, -y, -z'
   '-x, y, -z'
   'x, -y, z'
   'x+1/2, y+1/2, z'
   '-x+1/2, -y+1/2, -z'
   '-x+1/2, y+1/2, -z'
   'x+1/2, -y+1/2, z'

loop_
   _atom_site_label
   _atom_site_occupancy
   _atom_site_fract_x
   _atom_site_fract_y
   _atom_site_fract_z
   _atom_site_thermal_displace_type
   _atom_site_B_iso_or_equiv
   _atom_site_type_symbol
   K        1    0.2838(1)    0            0.138(2)    Biso  2.86  K
   SA1      1    0.00923(8)   0.18362(7)   0.2236(1)   Biso  1.28  Si
   SA2      1    0.20649(8)   0.38226(7)   0.3436(1)   Biso  1.23  Si
   O1       1    0            0.1440(3)    0           Biso  2.01  O
   O2       1    0.1306(3)    0.5          0.2834(7)   Biso  2.09  O
   O3       1    0.3274(3)    0.3558(3)    0.2259(5)   Biso  2.34  O
   O4       1    0.0327(2)    0.3093(2)    0.2561(4)   Biso  1.84  O
   O5       1    0.1817(2)    0.1258(2)    0.4041(4)   Biso  1.85  O
