#======================================================================

# CRYSTAL DATA

#----------------------------------------------------------------------




_pd_phase_name                         'SiO2 b-Quartz, 800C'
_cell_length_a                         4.9965(1)
_cell_length_b                         4.9965(1)
_cell_length_c                         5.4543(1)
_cell_angle_alpha                      90
_cell_angle_beta                       90
_cell_angle_gamma                      120
_symmetry_space_group_name_H-M         'P 64 2 2'
_symmetry_Int_Tables_number            181

loop_
_symmetry_equiv_pos_as_xyz
   'x, y, z'
   '-y, x-y, z+1/3'
   '-x+y, -x, z+2/3'
   '-x, -y, z'
   'y, -x+y, z+1/3'
   'x-y, x, z+2/3'
   'y, x, -z+1/3'
   'x-y, -y, -z'
   '-x, -x+y, -z+2/3'
   '-y, -x, -z+1/3'
   '-x+y, y, -z'
   'x, x-y, -z+2/3'

loop_
   _atom_site_label
   _atom_site_occupancy
   _atom_site_fract_x
   _atom_site_fract_y
   _atom_site_fract_z
   _atom_site_adp_type
   _atom_site_B_iso_or_equiv
   _atom_site_type_symbol
   Si1      1.0    0.50000      0            0           Biso  1.320  Si
   O1       1.0    0.4169(4)    0.2085(2)    0.83333     Biso  3.966  O

loop_
   _atom_site_aniso_label
   _atom_site_aniso_U_11
   _atom_site_aniso_U_22
   _atom_site_aniso_U_33
   _atom_site_aniso_U_12
   _atom_site_aniso_U_13
   _atom_site_aniso_U_23
   Si1	 0.32767  0.15541  0.44922  0.07770  0.00000  0.00000
   O1	 0.75082  0.69278  1.54994  0.37541  0.00000  0.83548
