#======================================================================

# CRYSTAL DATA

#----------------------------------------------------------------------

_pd_phase_name                         'CaTiO3'
_cell_length_a                         5.4043(8)
_cell_length_b                         5.4224(7)
_cell_length_c                         7.6510(12)
_cell_angle_alpha                      90
_cell_angle_beta                       90
_cell_angle_gamma                      90
_symmetry_space_group_name_H-M         'P b n m'
_symmetry_Int_Tables_number            62

loop_
_symmetry_equiv_pos_as_xyz
   'x, y, z'
   '-x, -y, -z'
   'x+1/2, -y+1/2, -z'
   '-x+1/2, y+1/2, z'
   '-x, -y, z+1/2'
   'x, y, -z+1/2'
   '-x+1/2, y+1/2, -z+1/2'
   'x+1/2, -y+1/2, z+1/2'

loop_
   _atom_site_label
   _atom_site_occupancy
   _atom_site_fract_x
   _atom_site_fract_y
   _atom_site_fract_z
   _atom_site_thermal_displace_type
   _atom_site_B_iso_or_equiv
   _atom_site_type_symbol
   Ca       1    0.9916(6)    0.0123(7)    0.25        Biso  0.62  Ca
   Ti       1    0.5          0            0           Biso  0.45  Ti
   O1       1    0.0586(10)   0.4687(9)    0.25        Biso  1.2   O
   O2       1    0.713(1)     0.288(1)     0.0371(6)   Biso  1.3   O
