#======================================================================

# CRYSTAL DATA

#----------------------------------------------------------------------

_pd_phase_name                         'Fulleren C60'
_cell_length_a                         14.04078(10)
_cell_length_b                         14.04078(10)
_cell_length_c                         14.04078(10)
_cell_angle_alpha                      90
_cell_angle_beta                       90
_cell_angle_gamma                      90
_symmetry_space_group_name_H-M         'P a -3 '
_symmetry_Int_Tables_number            205

loop_
_symmetry_equiv_pos_as_xyz
   'x, y, z'
   '-x, -y, -z'
   '-x+1/2, -y, z+1/2'
   'x+1/2, y, -z+1/2'
   '-x, y+1/2, -z+1/2'
   'x, -y+1/2, z+1/2'
   'x+1/2, -y+1/2, -z'
   '-x+1/2, y+1/2, z'
   'z, x, y'
   '-z, -x, -y'
   'z+1/2, -x+1/2, -y'
   '-z+1/2, x+1/2, y'
   '-z+1/2, -x, y+1/2'
   'z+1/2, x, -y+1/2'
   '-z, x+1/2, -y+1/2'
   'z, -x+1/2, y+1/2'
   'y, z, x'
   '-y, -z, -x'
   '-y, z+1/2, -x+1/2'
   'y, -z+1/2, x+1/2'
   'y+1/2, -z+1/2, -x'
   '-y+1/2, z+1/2, x'
   '-y+1/2, -z, x+1/2'
   'y+1/2, z, -x+1/2'

loop_
   _atom_site_label
   _atom_site_occupancy
   _atom_site_fract_x
   _atom_site_fract_y
   _atom_site_fract_z
   _atom_site_thermal_displace_type
   _atom_site_B_iso_or_equiv
   _atom_site_type_symbol
   C1       1    0.2294(3)   -0.0325(2)    0.1010(3)   Biso  0.3  C
   C2       1    0.2467(3)   -0.0540(2)    0.0061(2)   Biso  0.3  C
   C3       1    0.2081(3)    0.0646(2)    0.1289(3)   Biso  0.3  C
   C4       1    0.2066(3)   -0.1401(2)   -0.0360(2)   Biso  0.3  C
   C5       1    0.1710(2)   -0.0963(2)    0.1590(3)   Biso  0.3  C
   C6       1    0.2236(3)    0.1122(3)   -0.0371(2)   Biso  0.3  C
   C7       1    0.2439(3)    0.0192(3)   -0.0636(2)   Biso  0.3  C
   C8       1    0.2053(3)    0.1349(3)    0.0616(2)   Biso  0.3  C
   C9       1    0.1503(3)   -0.2017(3)    0.0202(2)   Biso  0.3  C
   C10      1    0.1323(3)   -0.1793(2)    0.1186(2)   Biso  0.3  C
