#======================================================================

# CRYSTAL DATA

#----------------------------------------------------------------------

_pd_phase_name                         'LiCoPO4'
_cell_length_a                         10.2001(6)
_cell_length_b                         5.9199(4)
_cell_length_c                         4.690(2)
_cell_angle_alpha                      90
_cell_angle_beta                       90
_cell_angle_gamma                      90
_symmetry_space_group_name_H-M         'P n m a'
_symmetry_Int_Tables_number            62

loop_
_symmetry_equiv_pos_as_xyz
   'x, y, z'
   '-x, -y, -z'
   '-x+1/2, -y, z+1/2'
   'x+1/2, y, -z+1/2'
   '-x, y+1/2, -z'
   'x, -y+1/2, z'
   'x+1/2, -y+1/2, -z+1/2'
   '-x+1/2, y+1/2, z+1/2'

loop_
   _atom_site_label
   _atom_site_occupancy
   _atom_site_fract_x
   _atom_site_fract_y
   _atom_site_fract_z
   _atom_site_thermal_displace_type
   _atom_site_B_iso_or_equiv
   _atom_site_type_symbol
   Li       1    0.5          0.5          0.5         Biso  1.1   Li
   Co       1    0.27859(4)   0.25         0.9793(1)   Biso  0.32  Co
   P        1    0.09447(5)   0.25         0.4184(2)   Biso  0.27  P
   O1       1    0.0977(1)    0.25         0.7410(6)   Biso  0.52  O
   O2       1    0.4550(2)    0.25         0.2043(7)   Biso  0.49  O
   O3       1    0.1663(1)    0.0446(2)    0.2820(5)   Biso  0.51  O
