#======================================================================

# CRYSTAL DATA

#----------------------------------------------------------------------

_pd_phase_name                         'Cu2(OH)2CO3'
_cell_length_a                         9.502
_cell_length_b                         11.974
_cell_length_c                         3.240
_cell_angle_alpha                      90
_cell_angle_beta                       98.75
_cell_angle_gamma                      90
_symmetry_space_group_name_H-M         'P 21/a  '
_symmetry_Int_Tables_number            14

loop_
_symmetry_equiv_pos_as_xyz
   'x, y, z'
   '-x, -y, -z'
   '-x+1/2, y+1/2, -z'
   'x+1/2, -y+1/2, z'

loop_
   _atom_site_label
   _atom_site_occupancy
   _atom_site_fract_x
   _atom_site_fract_y
   _atom_site_fract_z
   _atom_site_thermal_displace_type
   _atom_site_B_iso_or_equiv
   _atom_site_type_symbol
   Cu1      1    0.4981(2)  0.2879(1)  0.8931(5) Biso  1.08  Cu
   Cu2      1    0.2323(2)  0.3932(1)  0.3883(5) Biso  1.04  Cu
   O(H1)    1    0.0940(8)  0.3517(7)  0.916(3)  Biso  0.4   O
   O(H2)    1    0.3765(8)  0.4161(7)  0.865(3)  Biso  0.5   O
   C        1    0.267(1)   0.140(1)   0.471(4)  Biso  0.5   C
   O1       1    0.1312(9)  0.1363(7)  0.338(3)  Biso  0.6   O
   O2       1    0.3327(9)  0.2351(7)  0.445(3)  Biso  0.5   O
   O3       1    0.3341(9)  0.0556(7)  0.629(3)  Biso  0.6   O
