#======================================================================

# CRYSTAL DATA

#----------------------------------------------------------------------




_pd_phase_name                         'SiO2 stishovite'
_cell_length_a                         4.1773(1)
_cell_length_b                         4.1773(1)
_cell_length_c                         2.6655(1)
_cell_angle_alpha                      90
_cell_angle_beta                       90
_cell_angle_gamma                      90
_symmetry_space_group_name_H-M         'P 42/m n m'
_symmetry_Int_Tables_number            136

loop_
_symmetry_equiv_pos_as_xyz
   'x, y, z'
   '-x, -y, -z'
   '-x, -y, z'
   'x, y, -z'
   '-y+1/2, x+1/2, z+1/2'
   'y+1/2, -x+1/2, -z+1/2'
   'y+1/2, -x+1/2, z+1/2'
   '-y+1/2, x+1/2, -z+1/2'
   '-x+1/2, y+1/2, -z+1/2'
   'x+1/2, -y+1/2, z+1/2'
   'x+1/2, -y+1/2, -z+1/2'
   '-x+1/2, y+1/2, z+1/2'
   'y, x, -z'
   '-y, -x, z'
   '-y, -x, -z'
   'y, x, z'

loop_
   _atom_site_label
   _atom_site_occupancy
   _atom_site_fract_x
   _atom_site_fract_y
   _atom_site_fract_z
   _atom_site_adp_type
   _atom_site_B_iso_or_equiv
   _atom_site_type_symbol
   Si1      1.0    0            0            0           Biso  0.170  Si
   O1       1.0    0.30608(6)   0.30608(6)   0           Biso  0.222  O

loop_
   _atom_site_aniso_label
   _atom_site_aniso_U_11
   _atom_site_aniso_U_22
   _atom_site_aniso_U_33
   _atom_site_aniso_U_12
   _atom_site_aniso_U_13
   _atom_site_aniso_U_23
   Si1	 0.00235  0.00235  0.00177  0.00014  0.00000  0.00000
   O1	 0.00306  0.00306  0.00231 -0.00094  0.00000  0.00000
